MaximumFeedIn/TRA6342.glm
// TRA6342.glm
// Einspeiseleistung
//*********************************************

        module tape;

        module powerflow
        {
            solver_method NR;
            default_maximum_voltage_error 10e-6;
            NR_iteration_limit 500;
            NR_superLU_procs 16;
            nominal_frequency 50;
        };

        clock
        {
            timezone "UTC0UTC";
            starttime "2017-05-04 10:00:00 UTC";
            stoptime "2017-05-04 15:12:00 UTC";
        };

        class player
        {
            complex value;
        };

        object voltdump
        {
            filename "output_data/TRA6342_voltdump.csv";
            mode polar;
            runtime "2017-05-04 10:00:00 UTC";
        };

        object transformer_configuration
        {
            // TRA6342
            name "_400kVA16000$400V838e-5+478e-4jΩ";
            connect_type WYE_WYE;
            install_type PADMOUNT;
            power_rating 400.0;
            primary_voltage 16000.0;
            secondary_voltage 400.0;
            resistance 0.008379000000000001;
            reactance 0.047780879640625;
        };

        object line_configuration
        {
            // 4x10
            name "nis_el_cable_art_ART1338_configuration";
            z11 1.8064+0.105j Ohm/km;
            z12 0.0+0.0j Ohm/km;
            z13 0.0+0.0j Ohm/km;
            z21 0.0+0.0j Ohm/km;
            z22 1.8064+0.105j Ohm/km;
            z23 0.0+0.0j Ohm/km;
            z31 0.0+0.0j Ohm/km;
            z32 0.0+0.0j Ohm/km;
            z33 1.8064+0.105j Ohm/km;
        };

        object line_configuration
        {
            // 4x25
            name "nis_el_cable_art_ART1339_configuration";
            z11 0.7269+0.094j Ohm/km;
            z12 0.0+0.0j Ohm/km;
            z13 0.0+0.0j Ohm/km;
            z21 0.0+0.0j Ohm/km;
            z22 0.7269+0.094j Ohm/km;
            z23 0.0+0.0j Ohm/km;
            z31 0.0+0.0j Ohm/km;
            z32 0.0+0.0j Ohm/km;
            z33 0.7269+0.094j Ohm/km;
        };

        object line_configuration
        {
            // 3x25/25
            name "nis_el_cable_art_ART1345_configuration";
            z11 0.7277+0.075j Ohm/km;
            z12 0.0+0.0j Ohm/km;
            z13 0.0+0.0j Ohm/km;
            z21 0.0+0.0j Ohm/km;
            z22 0.7277+0.075j Ohm/km;
            z23 0.0+0.0j Ohm/km;
            z31 0.0+0.0j Ohm/km;
            z32 0.0+0.0j Ohm/km;
            z33 0.7277+0.075j Ohm/km;
        };

        object line_configuration
        {
            // 3x95/95
            name "nis_el_cable_art_ART1347_configuration";
            z11 0.1945+0.07j Ohm/km;
            z12 0.0+0.0j Ohm/km;
            z13 0.0+0.0j Ohm/km;
            z21 0.0+0.0j Ohm/km;
            z22 0.1945+0.07j Ohm/km;
            z23 0.0+0.0j Ohm/km;
            z31 0.0+0.0j Ohm/km;
            z32 0.0+0.0j Ohm/km;
            z33 0.1945+0.07j Ohm/km;
        };

        object line_configuration
        {
            // 3x50/50
            name "nis_el_cable_art_ART1346_configuration";
            z11 0.3881+0.073j Ohm/km;
            z12 0.0+0.0j Ohm/km;
            z13 0.0+0.0j Ohm/km;
            z21 0.0+0.0j Ohm/km;
            z22 0.3881+0.073j Ohm/km;
            z23 0.0+0.0j Ohm/km;
            z31 0.0+0.0j Ohm/km;
            z32 0.0+0.0j Ohm/km;
            z33 0.3881+0.073j Ohm/km;
        };

        object line_configuration
        {
            // 4x95
            name "nis_el_cable_art_ART1341_configuration";
            z11 0.1945+0.086j Ohm/km;
            z12 0.0+0.0j Ohm/km;
            z13 0.0+0.0j Ohm/km;
            z21 0.0+0.0j Ohm/km;
            z22 0.1945+0.086j Ohm/km;
            z23 0.0+0.0j Ohm/km;
            z31 0.0+0.0j Ohm/km;
            z32 0.0+0.0j Ohm/km;
            z33 0.1945+0.086j Ohm/km;
        };

        object line_configuration
        {
            // 3x150/150
            name "nis_el_cable_art_ART1382_configuration";
            z11 0.1262+0.07j Ohm/km;
            z12 0.0+0.0j Ohm/km;
            z13 0.0+0.0j Ohm/km;
            z21 0.0+0.0j Ohm/km;
            z22 0.1262+0.07j Ohm/km;
            z23 0.0+0.0j Ohm/km;
            z31 0.0+0.0j Ohm/km;
            z32 0.0+0.0j Ohm/km;
            z33 0.1262+0.07j Ohm/km;
        };

        object line_configuration
        {
            // 4x50
            name "nis_el_cable_art_ART1340_configuration";
            z11 0.3872+0.09j Ohm/km;
            z12 0.0+0.0j Ohm/km;
            z13 0.0+0.0j Ohm/km;
            z21 0.0+0.0j Ohm/km;
            z22 0.3872+0.09j Ohm/km;
            z23 0.0+0.0j Ohm/km;
            z31 0.0+0.0j Ohm/km;
            z32 0.0+0.0j Ohm/km;
            z33 0.3872+0.09j Ohm/km;
        };

        object line_configuration
        {
            // 3x240Alse/150
            name "nis_el_cable_art_ART901_configuration";
            z11 0.1266+0.071j Ohm/km;
            z12 0.0+0.0j Ohm/km;
            z13 0.0+0.0j Ohm/km;
            z21 0.0+0.0j Ohm/km;
            z22 0.1266+0.071j Ohm/km;
            z23 0.0+0.0j Ohm/km;
            z31 0.0+0.0j Ohm/km;
            z32 0.0+0.0j Ohm/km;
            z33 0.1266+0.071j Ohm/km;
        };

        object line_configuration
        {
            // 3x150/95
            name "nis_el_cable_art_ART1348_configuration";
            z11 0.1262+0.072j Ohm/km;
            z12 0.0+0.0j Ohm/km;
            z13 0.0+0.0j Ohm/km;
            z21 0.0+0.0j Ohm/km;
            z22 0.1262+0.072j Ohm/km;
            z23 0.0+0.0j Ohm/km;
            z31 0.0+0.0j Ohm/km;
            z32 0.0+0.0j Ohm/km;
            z33 0.1262+0.072j Ohm/km;
        };

        object line_configuration
        {
            // 3x(1x240/80)
            name "nis_el_one_cond_cable_art_ART261_configuration";
            z11 0.0778+0.093j Ohm/km;
            z12 0.0+0.0j Ohm/km;
            z13 0.0+0.0j Ohm/km;
            z21 0.0+0.0j Ohm/km;
            z22 0.0778+0.093j Ohm/km;
            z23 0.0+0.0j Ohm/km;
            z31 0.0+0.0j Ohm/km;
            z32 0.0+0.0j Ohm/km;
            z33 0.0778+0.093j Ohm/km;
        };

        object meter
        {
            name "PIN277413_topo";
            phases AN;
            bustype SWING;
            nominal_voltage 16000.0V;
            voltage_A 16000.0;
        };

        object meter
        {
            name "MUF50864_topo";
            phases AN;
            bustype PQ;
            nominal_voltage 400.0V;
        };

        object meter
        {
            name "MUF222099_topo";
            phases AN;
            bustype PQ;
            nominal_voltage 400.0V;
        };

        object meter
        {
            name "HAS31883_topo";
            phases AN;
            bustype PQ;
            nominal_voltage 400.0V;
        };

        object load
        {
            name "HAS31883_topo_load";
            parent "HAS31883_topo";
            phases AN;
            nominal_voltage 400.0V;
            object player
            {
                property "constant_power_A";
                file "input_data/HAS31883.csv";
            };
        };

        object recorder
        {
            name "HAS31883_voltage_recorder";
            parent "HAS31883_topo";
            property voltage_A.real,voltage_A.imag;
            interval 5;
            file "output_data/HAS31883_topo_voltage.csv";
        };

        object meter
        {
            name "MUF222422_topo";
            phases AN;
            bustype PQ;
            nominal_voltage 400.0V;
        };

        object meter
        {
            name "MUF51568_topo";
            phases AN;
            bustype PQ;
            nominal_voltage 400.0V;
        };

        object meter
        {
            name "PIN278255_topo";
            phases AN;
            bustype PQ;
            nominal_voltage 400.0V;
        };

        object meter
        {
            name "MUF51478_topo";
            phases AN;
            bustype PQ;
            nominal_voltage 400.0V;
        };

        object meter
        {
            name "MUF50966_topo";
            phases AN;
            bustype PQ;
            nominal_voltage 400.0V;
        };

        object meter
        {
            name "PIN278400_topo";
            phases AN;
            bustype PQ;
            nominal_voltage 400.0V;
        };

        object meter
        {
            name "HAS32218_topo";
            phases AN;
            bustype PQ;
            nominal_voltage 400.0V;
        };

        object load
        {
            name "HAS32218_topo_load";
            parent "HAS32218_topo";
            phases AN;
            nominal_voltage 400.0V;
            object player
            {
                property "constant_power_A";
                file "input_data/HAS32218.csv";
            };
        };

        object recorder
        {
            name "HAS32218_voltage_recorder";
            parent "HAS32218_topo";
            property voltage_A.real,voltage_A.imag;
            interval 5;
            file "output_data/HAS32218_topo_voltage.csv";
        };

        object meter
        {
            name "HAS32260_topo";
            phases AN;
            bustype PQ;
            nominal_voltage 400.0V;
        };

        object load
        {
            name "HAS32260_topo_load";
            parent "HAS32260_topo";
            phases AN;
            nominal_voltage 400.0V;
            object player
            {
                property "constant_power_A";
                file "input_data/HAS32260.csv";
            };
        };

        object recorder
        {
            name "HAS32260_voltage_recorder";
            parent "HAS32260_topo";
            property voltage_A.real,voltage_A.imag;
            interval 5;
            file "output_data/HAS32260_topo_voltage.csv";
        };

        object meter
        {
            name "HAS31872_topo";
            phases AN;
            bustype PQ;
            nominal_voltage 400.0V;
        };

        object load
        {
            name "HAS31872_topo_load";
            parent "HAS31872_topo";
            phases AN;
            nominal_voltage 400.0V;
            object player
            {
                property "constant_power_A";
                file "input_data/HAS31872.csv";
            };
        };

        object recorder
        {
            name "HAS31872_voltage_recorder";
            parent "HAS31872_topo";
            property voltage_A.real,voltage_A.imag;
            interval 5;
            file "output_data/HAS31872_topo_voltage.csv";
        };

        object meter
        {
            name "HAS33131_topo";
            phases AN;
            bustype PQ;
            nominal_voltage 400.0V;
        };

        object load
        {
            name "HAS33131_topo_load";
            parent "HAS33131_topo";
            phases AN;
            nominal_voltage 400.0V;
            object player
            {
                property "constant_power_A";
                file "input_data/HAS33131.csv";
            };
        };

        object recorder
        {
            name "HAS33131_voltage_recorder";
            parent "HAS33131_topo";
            property voltage_A.real,voltage_A.imag;
            interval 5;
            file "output_data/HAS33131_topo_voltage.csv";
        };

        object meter
        {
            name "HAS31895_topo";
            phases AN;
            bustype PQ;
            nominal_voltage 400.0V;
        };

        object load
        {
            name "HAS31895_topo_load";
            parent "HAS31895_topo";
            phases AN;
            nominal_voltage 400.0V;
            object player
            {
                property "constant_power_A";
                file "input_data/HAS31895.csv";
            };
        };

        object recorder
        {
            name "HAS31895_voltage_recorder";
            parent "HAS31895_topo";
            property voltage_A.real,voltage_A.imag;
            interval 5;
            file "output_data/HAS31895_topo_voltage.csv";
        };

        object meter
        {
            name "MUF122763_topo";
            phases AN;
            bustype PQ;
            nominal_voltage 400.0V;
        };

        object meter
        {
            name "MUF51521_topo";
            phases AN;
            bustype PQ;
            nominal_voltage 400.0V;
        };

        object meter
        {
            name "HAS31908_topo";
            phases AN;
            bustype PQ;
            nominal_voltage 400.0V;
        };

        object load
        {
            name "HAS31908_topo_load";
            parent "HAS31908_topo";
            phases AN;
            nominal_voltage 400.0V;
            object player
            {
                property "constant_power_A";
                file "input_data/HAS31908.csv";
            };
        };

        object recorder
        {
            name "HAS31908_voltage_recorder";
            parent "HAS31908_topo";
            property voltage_A.real,voltage_A.imag;
            interval 5;
            file "output_data/HAS31908_topo_voltage.csv";
        };

        object meter
        {
            name "MUF222411_topo";
            phases AN;
            bustype PQ;
            nominal_voltage 400.0V;
        };

        object meter
        {
            name "MUF51545_topo";
            phases AN;
            bustype PQ;
            nominal_voltage 400.0V;
        };

        object meter
        {
            name "MUF50977_topo";
            phases AN;
            bustype PQ;
            nominal_voltage 400.0V;
        };

        object meter
        {
            name "PIN278589_topo";
            phases AN;
            bustype PQ;
            nominal_voltage 400.0V;
        };

        object meter
        {
            name "HAS32247_topo";
            phases AN;
            bustype PQ;
            nominal_voltage 400.0V;
        };

        object load
        {
            name "HAS32247_topo_load";
            parent "HAS32247_topo";
            phases AN;
            nominal_voltage 400.0V;
            object player
            {
                property "constant_power_A";
                file "input_data/HAS32247.csv";
            };
        };

        object recorder
        {
            name "HAS32247_voltage_recorder";
            parent "HAS32247_topo";
            property voltage_A.real,voltage_A.imag;
            interval 5;
            file "output_data/HAS32247_topo_voltage.csv";
        };

        object meter
        {
            name "ABG244526_topo";
            phases AN;
            bustype PQ;
            nominal_voltage 400.0V;
        };

        object meter
        {
            name "ABG244538_topo";
            phases AN;
            bustype PQ;
            nominal_voltage 400.0V;
        };

        object meter
        {
            name "MUF51003_topo";
            phases AN;
            bustype PQ;
            nominal_voltage 400.0V;
        };

        object meter
        {
            name "MUF51014_topo";
            phases AN;
            bustype PQ;
            nominal_voltage 400.0V;
        };

        object meter
        {
            name "MUF50871_topo";
            phases AN;
            bustype PQ;
            nominal_voltage 400.0V;
        };

        object meter
        {
            name "HAS31938_topo";
            phases AN;
            bustype PQ;
            nominal_voltage 400.0V;
        };

        object load
        {
            name "HAS31938_topo_load";
            parent "HAS31938_topo";
            phases AN;
            nominal_voltage 400.0V;
            object player
            {
                property "constant_power_A";
                file "input_data/HAS31938.csv";
            };
        };

        object recorder
        {
            name "HAS31938_voltage_recorder";
            parent "HAS31938_topo";
            property voltage_A.real,voltage_A.imag;
            interval 5;
            file "output_data/HAS31938_topo_voltage.csv";
        };

        object meter
        {
            name "MUF51687_topo";
            phases AN;
            bustype PQ;
            nominal_voltage 400.0V;
        };

        object meter
        {
            name "MUF50705_topo";
            phases AN;
            bustype PQ;
            nominal_voltage 400.0V;
        };

        object meter
        {
            name "MUF51563_topo";
            phases AN;
            bustype PQ;
            nominal_voltage 400.0V;
        };

        object meter
        {
            name "MUF51473_topo";
            phases AN;
            bustype PQ;
            nominal_voltage 400.0V;
        };

        object meter
        {
            name "SAM22280_topo";
            phases AN;
            bustype PQ;
            nominal_voltage 400.0V;
        };

        object meter
        {
            name "HAS32248_topo";
            phases AN;
            bustype PQ;
            nominal_voltage 400.0V;
        };

        object load
        {
            name "HAS32248_topo_load";
            parent "HAS32248_topo";
            phases AN;
            nominal_voltage 400.0V;
            object player
            {
                property "constant_power_A";
                file "input_data/HAS32248.csv";
            };
        };

        object recorder
        {
            name "HAS32248_voltage_recorder";
            parent "HAS32248_topo";
            property voltage_A.real,voltage_A.imag;
            interval 5;
            file "output_data/HAS32248_topo_voltage.csv";
        };

        object meter
        {
            name "HAS31903_topo";
            phases AN;
            bustype PQ;
            nominal_voltage 400.0V;
        };

        object load
        {
            name "HAS31903_topo_load";
            parent "HAS31903_topo";
            phases AN;
            nominal_voltage 400.0V;
            object player
            {
                property "constant_power_A";
                file "input_data/HAS31903.csv";
            };
        };

        object recorder
        {
            name "HAS31903_voltage_recorder";
            parent "HAS31903_topo";
            property voltage_A.real,voltage_A.imag;
            interval 5;
            file "output_data/HAS31903_topo_voltage.csv";
        };

        object meter
        {
            name "MUF51676_topo";
            phases AN;
            bustype PQ;
            nominal_voltage 400.0V;
        };

        object meter
        {
            name "HAS32259_topo";
            phases AN;
            bustype PQ;
            nominal_voltage 400.0V;
        };

        object load
        {
            name "HAS32259_topo_load";
            parent "HAS32259_topo";
            phases AN;
            nominal_voltage 400.0V;
            object player
            {
                property "constant_power_A";
                file "input_data/HAS32259.csv";
            };
        };

        object recorder
        {
            name "HAS32259_voltage_recorder";
            parent "HAS32259_topo";
            property voltage_A.real,voltage_A.imag;
            interval 5;
            file "output_data/HAS32259_topo_voltage.csv";
        };

        object meter
        {
            name "MUF50793_topo";
            phases AN;
            bustype PQ;
            nominal_voltage 400.0V;
        };

        object meter
        {
            name "MUF202540_topo";
            phases AN;
            bustype PQ;
            nominal_voltage 400.0V;
        };

        object meter
        {
            name "PIN469142_topo";
            phases AN;
            bustype PQ;
            nominal_voltage 400.0V;
        };

        object meter
        {
            name "HAS31932_topo";
            phases AN;
            bustype PQ;
            nominal_voltage 400.0V;
        };

        object load
        {
            name "HAS31932_topo_load";
            parent "HAS31932_topo";
            phases AN;
            nominal_voltage 400.0V;
            object player
            {
                property "constant_power_A";
                file "input_data/HAS31932.csv";
            };
        };

        object recorder
        {
            name "HAS31932_voltage_recorder";
            parent "HAS31932_topo";
            property voltage_A.real,voltage_A.imag;
            interval 5;
            file "output_data/HAS31932_topo_voltage.csv";
        };

        object meter
        {
            name "HAS117007_topo";
            phases AN;
            bustype PQ;
            nominal_voltage 400.0V;
        };

        object load
        {
            name "HAS117007_topo_load";
            parent "HAS117007_topo";
            phases AN;
            nominal_voltage 400.0V;
            object player
            {
                property "constant_power_A";
                file "input_data/HAS31884.csv";
            };
        };

        object recorder
        {
            name "HAS31884_voltage_recorder";
            parent "HAS117007_topo";
            property voltage_A.real,voltage_A.imag;
            interval 5;
            file "output_data/HAS117007_topo_voltage.csv";
        };

        object meter
        {
            name "MUF222101_topo";
            phases AN;
            bustype PQ;
            nominal_voltage 400.0V;
        };

        object meter
        {
            name "PIN278406_topo";
            phases AN;
            bustype PQ;
            nominal_voltage 400.0V;
        };

        object meter
        {
            name "MUF50711_topo";
            phases AN;
            bustype PQ;
            nominal_voltage 400.0V;
        };

        object meter
        {
            name "MUF202796_topo";
            phases AN;
            bustype PQ;
            nominal_voltage 400.0V;
        };

        object meter
        {
            name "MUF201758_topo";
            phases AN;
            bustype PQ;
            nominal_voltage 400.0V;
        };

        object meter
        {
            name "MUF170503_topo";
            phases AN;
            bustype PQ;
            nominal_voltage 400.0V;
        };

        object meter
        {
            name "MUF51539_topo";
            phases AN;
            bustype PQ;
            nominal_voltage 400.0V;
        };

        object meter
        {
            name "HAS31878_topo";
            phases AN;
            bustype PQ;
            nominal_voltage 400.0V;
        };

        object load
        {
            name "HAS31878_topo_load";
            parent "HAS31878_topo";
            phases AN;
            nominal_voltage 400.0V;
            object player
            {
                property "constant_power_A";
                file "input_data/HAS31878.csv";
            };
        };

        object recorder
        {
            name "HAS31878_voltage_recorder";
            parent "HAS31878_topo";
            property voltage_A.real,voltage_A.imag;
            interval 5;
            file "output_data/HAS31878_topo_voltage.csv";
        };

        object meter
        {
            name "PIN469188_topo";
            phases AN;
            bustype PQ;
            nominal_voltage 400.0V;
        };

        object meter
        {
            name "ABG155172_topo";
            phases AN;
            bustype PQ;
            nominal_voltage 400.0V;
        };

        object meter
        {
            name "ABG154999_topo";
            phases AN;
            bustype PQ;
            nominal_voltage 400.0V;
        };

        object meter
        {
            name "ABG244521_topo";
            phases AN;
            bustype PQ;
            nominal_voltage 400.0V;
        };

        object meter
        {
            name "MUF51480_topo";
            phases AN;
            bustype PQ;
            nominal_voltage 400.0V;
        };

        object meter
        {
            name "PIN277410_topo";
            phases AN;
            bustype PQ;
            nominal_voltage 400.0V;
        };

        object meter
        {
            name "MUF51682_topo";
            phases AN;
            bustype PQ;
            nominal_voltage 400.0V;
        };

        object meter
        {
            name "HAS31873_topo";
            phases AN;
            bustype PQ;
            nominal_voltage 400.0V;
        };

        object load
        {
            name "HAS31873_topo_load";
            parent "HAS31873_topo";
            phases AN;
            nominal_voltage 400.0V;
            object player
            {
                property "constant_power_A";
                file "input_data/HAS31873.csv";
            };
        };

        object recorder
        {
            name "HAS31873_voltage_recorder";
            parent "HAS31873_topo";
            property voltage_A.real,voltage_A.imag;
            interval 5;
            file "output_data/HAS31873_topo_voltage.csv";
        };

        object meter
        {
            name "PIN469082_topo";
            phases AN;
            bustype PQ;
            nominal_voltage 400.0V;
        };

        object meter
        {
            name "MUF132395_topo";
            phases AN;
            bustype PQ;
            nominal_voltage 400.0V;
        };

        object meter
        {
            name "MUF51546_topo";
            phases AN;
            bustype PQ;
            nominal_voltage 400.0V;
        };

        object meter
        {
            name "MUF50967_topo";
            phases AN;
            bustype PQ;
            nominal_voltage 400.0V;
        };

        object meter
        {
            name "HAS32219_topo";
            phases AN;
            bustype PQ;
            nominal_voltage 400.0V;
        };

        object load
        {
            name "HAS32219_topo_load";
            parent "HAS32219_topo";
            phases AN;
            nominal_voltage 400.0V;
            object player
            {
                property "constant_power_A";
                file "input_data/HAS32219.csv";
            };
        };

        object recorder
        {
            name "HAS32219_voltage_recorder";
            parent "HAS32219_topo";
            property voltage_A.real,voltage_A.imag;
            interval 5;
            file "output_data/HAS32219_topo_voltage.csv";
        };

        object meter
        {
            name "MUF51522_topo";
            phases AN;
            bustype PQ;
            nominal_voltage 400.0V;
        };

        object meter
        {
            name "HAS31896_topo";
            phases AN;
            bustype PQ;
            nominal_voltage 400.0V;
        };

        object load
        {
            name "HAS31896_topo_load";
            parent "HAS31896_topo";
            phases AN;
            nominal_voltage 400.0V;
            object player
            {
                property "constant_power_A";
                file "input_data/HAS31896.csv";
            };
        };

        object recorder
        {
            name "HAS31896_voltage_recorder";
            parent "HAS31896_topo";
            property voltage_A.real,voltage_A.imag;
            interval 5;
            file "output_data/HAS31896_topo_voltage.csv";
        };

        object meter
        {
            name "MUF51569_topo";
            phases AN;
            bustype PQ;
            nominal_voltage 400.0V;
        };

        object meter
        {
            name "MUF50889_topo";
            phases AN;
            bustype PQ;
            nominal_voltage 400.0V;
        };

        object meter
        {
            name "HAS32207_topo";
            phases AN;
            bustype PQ;
            nominal_voltage 400.0V;
        };

        object load
        {
            name "HAS32207_topo_load";
            parent "HAS32207_topo";
            phases AN;
            nominal_voltage 400.0V;
            object player
            {
                property "constant_power_A";
                file "input_data/HAS32207.csv";
            };
        };

        object recorder
        {
            name "HAS32207_voltage_recorder";
            parent "HAS32207_topo";
            property voltage_A.real,voltage_A.imag;
            interval 5;
            file "output_data/HAS32207_topo_voltage.csv";
        };

        object meter
        {
            name "MUF122764_topo";
            phases AN;
            bustype PQ;
            nominal_voltage 400.0V;
        };

        object meter
        {
            name "MUF50865_topo";
            phases AN;
            bustype PQ;
            nominal_voltage 400.0V;
        };

        object meter
        {
            name "HAS32261_topo";
            phases AN;
            bustype PQ;
            nominal_voltage 400.0V;
        };

        object load
        {
            name "HAS32261_topo_load";
            parent "HAS32261_topo";
            phases AN;
            nominal_voltage 400.0V;
            object player
            {
                property "constant_power_A";
                file "input_data/HAS32261.csv";
            };
        };

        object recorder
        {
            name "HAS32261_voltage_recorder";
            parent "HAS32261_topo";
            property voltage_A.real,voltage_A.imag;
            interval 5;
            file "output_data/HAS32261_topo_voltage.csv";
        };

        object meter
        {
            name "MUF51086_topo";
            phases AN;
            bustype PQ;
            nominal_voltage 400.0V;
        };

        object meter
        {
            name "MUF222412_topo";
            phases AN;
            bustype PQ;
            nominal_voltage 400.0V;
        };

        object meter
        {
            name "MUF50978_topo";
            phases AN;
            bustype PQ;
            nominal_voltage 400.0V;
        };

        object meter
        {
            name "HAS32171_topo";
            phases AN;
            bustype PQ;
            nominal_voltage 400.0V;
        };

        object load
        {
            name "HAS32171_topo_load";
            parent "HAS32171_topo";
            phases AN;
            nominal_voltage 400.0V;
            object player
            {
                property "constant_power_A";
                file "input_data/HAS32171.csv";
            };
        };

        object recorder
        {
            name "HAS32171_voltage_recorder";
            parent "HAS32171_topo";
            property voltage_A.real,voltage_A.imag;
            interval 5;
            file "output_data/HAS32171_topo_voltage.csv";
        };

        object meter
        {
            name "MUF51479_topo";
            phases AN;
            bustype PQ;
            nominal_voltage 400.0V;
        };

        object meter
        {
            name "PIN469172_topo";
            phases AN;
            bustype PQ;
            nominal_voltage 400.0V;
        };

        object meter
        {
            name "MUF51688_topo";
            phases AN;
            bustype PQ;
            nominal_voltage 400.0V;
        };

        object meter
        {
            name "PIN278399_topo";
            phases AN;
            bustype PQ;
            nominal_voltage 400.0V;
        };

        object meter
        {
            name "HAS32249_topo";
            phases AN;
            bustype PQ;
            nominal_voltage 400.0V;
        };

        object load
        {
            name "HAS32249_topo_load";
            parent "HAS32249_topo";
            phases AN;
            nominal_voltage 400.0V;
            object player
            {
                property "constant_power_A";
                file "input_data/HAS32249.csv";
            };
        };

        object recorder
        {
            name "HAS32249_voltage_recorder";
            parent "HAS32249_topo";
            property voltage_A.real,voltage_A.imag;
            interval 5;
            file "output_data/HAS32249_topo_voltage.csv";
        };

        object meter
        {
            name "MUF51564_topo";
            phases AN;
            bustype PQ;
            nominal_voltage 400.0V;
        };

        object meter
        {
            name "MUF51092_topo";
            phases AN;
            bustype PQ;
            nominal_voltage 400.0V;
        };

        object meter
        {
            name "MUF172954_topo";
            phases AN;
            bustype PQ;
            nominal_voltage 400.0V;
        };

        object meter
        {
            name "MUF51474_topo";
            phases AN;
            bustype PQ;
            nominal_voltage 400.0V;
        };

        object meter
        {
            name "MUF222430_topo";
            phases AN;
            bustype PQ;
            nominal_voltage 400.0V;
        };

        object meter
        {
            name "PIN277416_topo";
            phases AN;
            bustype PQ;
            nominal_voltage 400.0V;
        };

        object meter
        {
            name "MUF51541_topo";
            phases AN;
            bustype PQ;
            nominal_voltage 400.0V;
        };

        object meter
        {
            name "MUF51540_topo";
            phases AN;
            bustype PQ;
            nominal_voltage 400.0V;
        };

        object meter
        {
            name "HAS71603_topo";
            phases AN;
            bustype PQ;
            nominal_voltage 400.0V;
        };

        object load
        {
            name "HAS71603_topo_load";
            parent "HAS71603_topo";
            phases AN;
            nominal_voltage 400.0V;
            object player
            {
                property "constant_power_A";
                file "input_data/HAS71603.csv";
            };
        };

        object recorder
        {
            name "HAS71603_voltage_recorder";
            parent "HAS71603_topo";
            property voltage_A.real,voltage_A.imag;
            interval 5;
            file "output_data/HAS71603_topo_voltage.csv";
        };

        object meter
        {
            name "MUF50872_topo";
            phases AN;
            bustype PQ;
            nominal_voltage 400.0V;
        };

        object meter
        {
            name "MUF51004_topo";
            phases AN;
            bustype PQ;
            nominal_voltage 400.0V;
        };

        object meter
        {
            name "HAS31904_topo";
            phases AN;
            bustype PQ;
            nominal_voltage 400.0V;
        };

        object load
        {
            name "HAS31904_topo_load";
            parent "HAS31904_topo";
            phases AN;
            nominal_voltage 400.0V;
            object player
            {
                property "constant_power_A";
                file "input_data/HAS31904.csv";
            };
        };

        object recorder
        {
            name "HAS31904_voltage_recorder";
            parent "HAS31904_topo";
            property voltage_A.real,voltage_A.imag;
            interval 5;
            file "output_data/HAS31904_topo_voltage.csv";
        };

        object meter
        {
            name "MUF50706_topo";
            phases AN;
            bustype PQ;
            nominal_voltage 400.0V;
        };

        object meter
        {
            name "MUF178144_topo";
            phases AN;
            bustype PQ;
            nominal_voltage 400.0V;
        };

        object meter
        {
            name "ABG244516_topo";
            phases AN;
            bustype PQ;
            nominal_voltage 400.0V;
        };

        object meter
        {
            name "MUF51575_topo";
            phases AN;
            bustype PQ;
            nominal_voltage 400.0V;
        };

        object meter
        {
            name "PIN277380_topo";
            phases AN;
            bustype PQ;
            nominal_voltage 400.0V;
        };

        object meter
        {
            name "MUF51677_topo";
            phases AN;
            bustype PQ;
            nominal_voltage 400.0V;
        };

        object meter
        {
            name "MUF50794_topo";
            phases AN;
            bustype PQ;
            nominal_voltage 400.0V;
        };

        object meter
        {
            name "HAS32255_topo";
            phases AN;
            bustype PQ;
            nominal_voltage 400.0V;
        };

        object load
        {
            name "HAS32255_topo_load";
            parent "HAS32255_topo";
            phases AN;
            nominal_voltage 400.0V;
            object player
            {
                property "constant_power_A";
                file "input_data/HAS32255.csv";
            };
        };

        object recorder
        {
            name "HAS32255_voltage_recorder";
            parent "HAS32255_topo";
            property voltage_A.real,voltage_A.imag;
            interval 5;
            file "output_data/HAS32255_topo_voltage.csv";
        };

        object meter
        {
            name "MUF201759_topo";
            phases AN;
            bustype PQ;
            nominal_voltage 400.0V;
        };

        object meter
        {
            name "HAS31879_topo";
            phases AN;
            bustype PQ;
            nominal_voltage 400.0V;
        };

        object load
        {
            name "HAS31879_topo_load";
            parent "HAS31879_topo";
            phases AN;
            nominal_voltage 400.0V;
            object player
            {
                property "constant_power_A";
                file "input_data/HAS31879.csv";
            };
        };

        object recorder
        {
            name "HAS31879_voltage_recorder";
            parent "HAS31879_topo";
            property voltage_A.real,voltage_A.imag;
            interval 5;
            file "output_data/HAS31879_topo_voltage.csv";
        };

        object meter
        {
            name "ABG155084_topo";
            phases AN;
            bustype PQ;
            nominal_voltage 400.0V;
        };

        object meter
        {
            name "MUF50980_topo";
            phases AN;
            bustype PQ;
            nominal_voltage 400.0V;
        };

        object meter
        {
            name "ABG155072_topo";
            phases AN;
            bustype PQ;
            nominal_voltage 400.0V;
        };

        object meter
        {
            name "HAS31933_topo";
            phases AN;
            bustype PQ;
            nominal_voltage 400.0V;
        };

        object load
        {
            name "HAS31933_topo_load";
            parent "HAS31933_topo";
            phases AN;
            nominal_voltage 400.0V;
            object player
            {
                property "constant_power_A";
                file "input_data/HAS31933.csv";
            };
        };

        object recorder
        {
            name "HAS31933_voltage_recorder";
            parent "HAS31933_topo";
            property voltage_A.real,voltage_A.imag;
            interval 5;
            file "output_data/HAS31933_topo_voltage.csv";
        };

        object meter
        {
            name "ABG154608_topo";
            phases AN;
            bustype PQ;
            nominal_voltage 400.0V;
        };

        object meter
        {
            name "HAS32345_topo";
            phases AN;
            bustype PQ;
            nominal_voltage 400.0V;
        };

        object load
        {
            name "HAS32345_topo_load";
            parent "HAS32345_topo";
            phases AN;
            nominal_voltage 400.0V;
            object player
            {
                property "constant_power_A";
                file "input_data/HAS32345.csv";
            };
        };

        object recorder
        {
            name "HAS32345_voltage_recorder";
            parent "HAS32345_topo";
            property voltage_A.real,voltage_A.imag;
            interval 5;
            file "output_data/HAS32345_topo_voltage.csv";
        };

        object meter
        {
            name "ABG186865_topo";
            phases AN;
            bustype PQ;
            nominal_voltage 400.0V;
        };

        object meter
        {
            name "MUF51683_topo";
            phases AN;
            bustype PQ;
            nominal_voltage 400.0V;
        };

        object meter
        {
            name "ABG186876_topo";
            phases AN;
            bustype PQ;
            nominal_voltage 400.0V;
        };

        object meter
        {
            name "HAS31922_topo";
            phases AN;
            bustype PQ;
            nominal_voltage 400.0V;
        };

        object load
        {
            name "HAS31922_topo_load";
            parent "HAS31922_topo";
            phases AN;
            nominal_voltage 400.0V;
            object player
            {
                property "constant_power_A";
                file "input_data/HAS31922.csv";
            };
        };

        object recorder
        {
            name "HAS31922_voltage_recorder";
            parent "HAS31922_topo";
            property voltage_A.real,voltage_A.imag;
            interval 5;
            file "output_data/HAS31922_topo_voltage.csv";
        };

        object meter
        {
            name "HAS32220_topo";
            phases AN;
            bustype PQ;
            nominal_voltage 400.0V;
        };

        object load
        {
            name "HAS32220_topo_load";
            parent "HAS32220_topo";
            phases AN;
            nominal_voltage 400.0V;
            object player
            {
                property "constant_power_A";
                file "input_data/HAS32220.csv";
            };
        };

        object recorder
        {
            name "HAS32220_voltage_recorder";
            parent "HAS32220_topo";
            property voltage_A.real,voltage_A.imag;
            interval 5;
            file "output_data/HAS32220_topo_voltage.csv";
        };

        object meter
        {
            name "PIN277423_topo";
            phases AN;
            bustype PQ;
            nominal_voltage 400.0V;
        };

        object meter
        {
            name "MUF188008_topo";
            phases AN;
            bustype PQ;
            nominal_voltage 400.0V;
        };

        object meter
        {
            name "HAS103086_topo";
            phases AN;
            bustype PQ;
            nominal_voltage 400.0V;
        };

        object load
        {
            name "HAS103086_topo_load";
            parent "HAS103086_topo";
            phases AN;
            nominal_voltage 400.0V;
            object player
            {
                property "constant_power_A";
                file "input_data/HAS103086.csv";
            };
        };

        object recorder
        {
            name "HAS103086_voltage_recorder";
            parent "HAS103086_topo";
            property voltage_A.real,voltage_A.imag;
            interval 5;
            file "output_data/HAS103086_topo_voltage.csv";
        };

        object meter
        {
            name "MUF50890_topo";
            phases AN;
            bustype PQ;
            nominal_voltage 400.0V;
        };

        object meter
        {
            name "HAS32243_topo";
            phases AN;
            bustype PQ;
            nominal_voltage 400.0V;
        };

        object load
        {
            name "HAS32243_topo_load";
            parent "HAS32243_topo";
            phases AN;
            nominal_voltage 400.0V;
            object player
            {
                property "constant_power_A";
                file "input_data/HAS32243.csv";
            };
        };

        object recorder
        {
            name "HAS32243_voltage_recorder";
            parent "HAS32243_topo";
            property voltage_A.real,voltage_A.imag;
            interval 5;
            file "output_data/HAS32243_topo_voltage.csv";
        };

        object meter
        {
            name "HAS31885_topo";
            phases AN;
            bustype PQ;
            nominal_voltage 400.0V;
        };

        object load
        {
            name "HAS31885_topo_load";
            parent "HAS31885_topo";
            phases AN;
            nominal_voltage 400.0V;
            object player
            {
                property "constant_power_A";
                file "input_data/HAS31885.csv";
            };
        };

        object recorder
        {
            name "HAS31885_voltage_recorder";
            parent "HAS31885_topo";
            property voltage_A.real,voltage_A.imag;
            interval 5;
            file "output_data/HAS31885_topo_voltage.csv";
        };

        object meter
        {
            name "HAS117014_topo";
            phases AN;
            bustype PQ;
            nominal_voltage 400.0V;
        };

        object load
        {
            name "HAS117014_topo_load";
            parent "HAS117014_topo";
            phases AN;
            nominal_voltage 400.0V;
            object player
            {
                property "constant_power_A";
                file "input_data/HAS117014.csv";
            };
        };

        object recorder
        {
            name "HAS117014_voltage_recorder";
            parent "HAS117014_topo";
            property voltage_A.real,voltage_A.imag;
            interval 5;
            file "output_data/HAS117014_topo_voltage.csv";
        };

        object meter
        {
            name "HAS31897_topo";
            phases AN;
            bustype PQ;
            nominal_voltage 400.0V;
        };

        object load
        {
            name "HAS31897_topo_load";
            parent "HAS31897_topo";
            phases AN;
            nominal_voltage 400.0V;
            object player
            {
                property "constant_power_A";
                file "input_data/HAS31897.csv";
            };
        };

        object recorder
        {
            name "HAS31897_voltage_recorder";
            parent "HAS31897_topo";
            property voltage_A.real,voltage_A.imag;
            interval 5;
            file "output_data/HAS31897_topo_voltage.csv";
        };

        object meter
        {
            name "HAS32262_topo";
            phases AN;
            bustype PQ;
            nominal_voltage 400.0V;
        };

        object load
        {
            name "HAS32262_topo_load";
            parent "HAS32262_topo";
            phases AN;
            nominal_voltage 400.0V;
            object player
            {
                property "constant_power_A";
                file "input_data/HAS32262.csv";
            };
        };

        object recorder
        {
            name "HAS32262_voltage_recorder";
            parent "HAS32262_topo";
            property voltage_A.real,voltage_A.imag;
            interval 5;
            file "output_data/HAS32262_topo_voltage.csv";
        };

        object meter
        {
            name "HAS31874_topo";
            phases AN;
            bustype PQ;
            nominal_voltage 400.0V;
        };

        object load
        {
            name "HAS31874_topo_load";
            parent "HAS31874_topo";
            phases AN;
            nominal_voltage 400.0V;
            object player
            {
                property "constant_power_A";
                file "input_data/HAS31874.csv";
            };
        };

        object recorder
        {
            name "HAS31874_voltage_recorder";
            parent "HAS31874_topo";
            property voltage_A.real,voltage_A.imag;
            interval 5;
            file "output_data/HAS31874_topo_voltage.csv";
        };

        object meter
        {
            name "HAS32340_topo";
            phases AN;
            bustype PQ;
            nominal_voltage 400.0V;
        };

        object load
        {
            name "HAS32340_topo_load";
            parent "HAS32340_topo";
            phases AN;
            nominal_voltage 400.0V;
            object player
            {
                property "constant_power_A";
                file "input_data/HAS32340.csv";
            };
        };

        object recorder
        {
            name "HAS32340_voltage_recorder";
            parent "HAS32340_topo";
            property voltage_A.real,voltage_A.imag;
            interval 5;
            file "output_data/HAS32340_topo_voltage.csv";
        };

        object meter
        {
            name "PIN469095_topo";
            phases AN;
            bustype PQ;
            nominal_voltage 400.0V;
        };

        object meter
        {
            name "MUF50968_topo";
            phases AN;
            bustype PQ;
            nominal_voltage 400.0V;
        };

        object meter
        {
            name "ABG244497_topo";
            phases AN;
            bustype PQ;
            nominal_voltage 400.0V;
        };

        object meter
        {
            name "MUF51690_topo";
            phases AN;
            bustype PQ;
            nominal_voltage 400.0V;
        };

        object meter
        {
            name "HAS100290_topo";
            phases AN;
            bustype PQ;
            nominal_voltage 400.0V;
        };

        object load
        {
            name "HAS100290_topo_load";
            parent "HAS100290_topo";
            phases AN;
            nominal_voltage 400.0V;
            object player
            {
                property "constant_power_A";
                file "input_data/HAS100290.csv";
            };
        };

        object recorder
        {
            name "HAS100290_voltage_recorder";
            parent "HAS100290_topo";
            property voltage_A.real,voltage_A.imag;
            interval 5;
            file "output_data/HAS100290_topo_voltage.csv";
        };

        object meter
        {
            name "MUF51087_topo";
            phases AN;
            bustype PQ;
            nominal_voltage 400.0V;
        };

        object meter
        {
            name "MUF50979_topo";
            phases AN;
            bustype PQ;
            nominal_voltage 400.0V;
        };

        object meter
        {
            name "HAS32172_topo";
            phases AN;
            bustype PQ;
            nominal_voltage 400.0V;
        };

        object load
        {
            name "HAS32172_topo_load";
            parent "HAS32172_topo";
            phases AN;
            nominal_voltage 400.0V;
            object player
            {
                property "constant_power_A";
                file "input_data/HAS32172.csv";
            };
        };

        object recorder
        {
            name "HAS32172_voltage_recorder";
            parent "HAS32172_topo";
            property voltage_A.real,voltage_A.imag;
            interval 5;
            file "output_data/HAS32172_topo_voltage.csv";
        };

        object meter
        {
            name "ABG186871_topo";
            phases AN;
            bustype PQ;
            nominal_voltage 400.0V;
        };

        object meter
        {
            name "HAS77997_topo";
            phases AN;
            bustype PQ;
            nominal_voltage 400.0V;
        };

        object load
        {
            name "HAS77997_topo_load";
            parent "HAS77997_topo";
            phases AN;
            nominal_voltage 400.0V;
            object player
            {
                property "constant_power_A";
                file "input_data/HAS77997.csv";
            };
        };

        object recorder
        {
            name "HAS77997_voltage_recorder";
            parent "HAS77997_topo";
            property voltage_A.real,voltage_A.imag;
            interval 5;
            file "output_data/HAS77997_topo_voltage.csv";
        };

        object meter
        {
            name "HAS32250_topo";
            phases AN;
            bustype PQ;
            nominal_voltage 400.0V;
        };

        object load
        {
            name "HAS32250_topo_load";
            parent "HAS32250_topo";
            phases AN;
            nominal_voltage 400.0V;
            object player
            {
                property "constant_power_A";
                file "input_data/HAS32250.csv";
            };
        };

        object recorder
        {
            name "HAS32250_voltage_recorder";
            parent "HAS32250_topo";
            property voltage_A.real,voltage_A.imag;
            interval 5;
            file "output_data/HAS32250_topo_voltage.csv";
        };

        object meter
        {
            name "MUF50866_topo";
            phases AN;
            bustype PQ;
            nominal_voltage 400.0V;
        };

        object meter
        {
            name "MUF201754_topo";
            phases AN;
            bustype PQ;
            nominal_voltage 400.0V;
        };

        object meter
        {
            name "MUF51542_topo";
            phases AN;
            bustype PQ;
            nominal_voltage 400.0V;
        };

        object meter
        {
            name "ABG244505_topo";
            phases AN;
            bustype PQ;
            nominal_voltage 400.0V;
        };

        object meter
        {
            name "MUF51005_topo";
            phases AN;
            bustype PQ;
            nominal_voltage 400.0V;
        };

        object meter
        {
            name "HAS31905_topo";
            phases AN;
            bustype PQ;
            nominal_voltage 400.0V;
        };

        object load
        {
            name "HAS31905_topo_load";
            parent "HAS31905_topo";
            phases AN;
            nominal_voltage 400.0V;
            object player
            {
                property "constant_power_A";
                file "input_data/HAS31905.csv";
            };
        };

        object recorder
        {
            name "HAS31905_voltage_recorder";
            parent "HAS31905_topo";
            property voltage_A.real,voltage_A.imag;
            interval 5;
            file "output_data/HAS31905_topo_voltage.csv";
        };

        object meter
        {
            name "MUF51678_topo";
            phases AN;
            bustype PQ;
            nominal_voltage 400.0V;
        };

        object meter
        {
            name "PIN469114_topo";
            phases AN;
            bustype PQ;
            nominal_voltage 400.0V;
        };

        object meter
        {
            name "MUF51093_topo";
            phases AN;
            bustype PQ;
            nominal_voltage 400.0V;
        };

        object meter
        {
            name "MUF51565_topo";
            phases AN;
            bustype PQ;
            nominal_voltage 400.0V;
        };

        object meter
        {
            name "MUF50873_topo";
            phases AN;
            bustype PQ;
            nominal_voltage 400.0V;
        };

        object meter
        {
            name "ABG155067_topo";
            phases AN;
            bustype PQ;
            nominal_voltage 400.0V;
        };

        object meter
        {
            name "PIN469138_topo";
            phases AN;
            bustype PQ;
            nominal_voltage 400.0V;
        };

        object meter
        {
            name "MUF50795_topo";
            phases AN;
            bustype PQ;
            nominal_voltage 400.0V;
        };

        object meter
        {
            name "HAS31880_topo";
            phases AN;
            bustype PQ;
            nominal_voltage 400.0V;
        };

        object load
        {
            name "HAS31880_topo_load";
            parent "HAS31880_topo";
            phases AN;
            nominal_voltage 400.0V;
            object player
            {
                property "constant_power_A";
                file "input_data/HAS31880.csv";
            };
        };

        object recorder
        {
            name "HAS31880_voltage_recorder";
            parent "HAS31880_topo";
            property voltage_A.real,voltage_A.imag;
            interval 5;
            file "output_data/HAS31880_topo_voltage.csv";
        };

        object meter
        {
            name "MUF51689_topo";
            phases AN;
            bustype PQ;
            nominal_voltage 400.0V;
        };

        object meter
        {
            name "PIN277392_topo";
            phases AN;
            bustype PQ;
            nominal_voltage 400.0V;
        };

        object meter
        {
            name "HAS32226_topo";
            phases AN;
            bustype PQ;
            nominal_voltage 400.0V;
        };

        object load
        {
            name "HAS32226_topo_load";
            parent "HAS32226_topo";
            phases AN;
            nominal_voltage 400.0V;
            object player
            {
                property "constant_power_A";
                file "input_data/HAS32226.csv";
            };
        };

        object recorder
        {
            name "HAS32226_voltage_recorder";
            parent "HAS32226_topo";
            property voltage_A.real,voltage_A.imag;
            interval 5;
            file "output_data/HAS32226_topo_voltage.csv";
        };

        object meter
        {
            name "PIN278264_topo";
            phases AN;
            bustype PQ;
            nominal_voltage 400.0V;
        };

        object meter
        {
            name "HAS32221_topo";
            phases AN;
            bustype PQ;
            nominal_voltage 400.0V;
        };

        object load
        {
            name "HAS32221_topo_load";
            parent "HAS32221_topo";
            phases AN;
            nominal_voltage 400.0V;
            object player
            {
                property "constant_power_A";
                file "input_data/HAS32221.csv";
            };
        };

        object recorder
        {
            name "HAS32221_voltage_recorder";
            parent "HAS32221_topo";
            property voltage_A.real,voltage_A.imag;
            interval 5;
            file "output_data/HAS32221_topo_voltage.csv";
        };

        object meter
        {
            name "HAS99821_topo";
            phases AN;
            bustype PQ;
            nominal_voltage 400.0V;
        };

        object load
        {
            name "HAS99821_topo_load";
            parent "HAS99821_topo";
            phases AN;
            nominal_voltage 400.0V;
            object player
            {
                property "constant_power_A";
                file "input_data/HAS99821.csv";
            };
        };

        object recorder
        {
            name "HAS99821_voltage_recorder";
            parent "HAS99821_topo";
            property voltage_A.real,voltage_A.imag;
            interval 5;
            file "output_data/HAS99821_topo_voltage.csv";
        };

        object meter
        {
            name "PIN469167_topo";
            phases AN;
            bustype PQ;
            nominal_voltage 400.0V;
        };

        object meter
        {
            name "HAS32244_topo";
            phases AN;
            bustype PQ;
            nominal_voltage 400.0V;
        };

        object load
        {
            name "HAS32244_topo_load";
            parent "HAS32244_topo";
            phases AN;
            nominal_voltage 400.0V;
            object player
            {
                property "constant_power_A";
                file "input_data/HAS32244.csv";
            };
        };

        object recorder
        {
            name "HAS32244_voltage_recorder";
            parent "HAS32244_topo";
            property voltage_A.real,voltage_A.imag;
            interval 5;
            file "output_data/HAS32244_topo_voltage.csv";
        };

        object meter
        {
            name "HAS31778_topo";
            phases AN;
            bustype PQ;
            nominal_voltage 400.0V;
        };

        object load
        {
...